Version 4
SHEET 1 1924 1520
WIRE 624 432 160 432
WIRE 624 576 624 432
WIRE 736 576 624 576
WIRE 1008 576 896 576
WIRE 288 592 144 592
WIRE 736 640 624 640
WIRE 1008 640 912 640
WIRE 288 656 288 592
WIRE 400 656 288 656
WIRE 624 672 624 640
WIRE 624 672 464 672
WIRE 400 688 288 688
WIRE 288 736 288 688
WIRE 288 736 192 736
WIRE 624 784 624 672
WIRE 1008 784 624 784
FLAG 160 432 ton
IOPIN 160 432 In
FLAG 144 592 iv
IOPIN 144 592 In
FLAG 192 736 isense
IOPIN 192 736 In
FLAG 1008 576 drv
IOPIN 1008 576 In
FLAG 1008 640 _drv
IOPIN 1008 640 In
FLAG 1008 784 CLK
IOPIN 1008 784 In
SYMBOL Control\\comp 432 672 R0
WINDOW 3 -31 48 Left 2
WINDOW 123 -28 72 Left 2
WINDOW 0 6 -52 Left 2
WINDOW 38 0 -30 Left 2
SYMATTR Value Vhigh=1
SYMATTR Value2 Vlow=0
SYMATTR InstName U1
SYMBOL Control\\oneshot 816 544 R0
WINDOW 3 -50 151 Left 2
WINDOW 0 -79 -52 Left 2
WINDOW 38 -79 -22 Left 2
SYMATTR Value tgain={tgain}
SYMATTR InstName U2
